<?xml version="1.0" encoding="UTF-8"?>

<configuration xmlns:xsi="http://www.w3.org/2001/XMLSchema-instance" xsi:noNamespaceSchemaLocation="http://sumo.dlr.de/xsd/sumoConfiguration.xsd">

    <input>
        <net-file value="urban.net.xml"/>
        <route-files value="urban.rou.xml"/>
        <additional-files value="urban.add.xml"/>
    </input>

    <time>
        <begin value="0"/>
        <end value="1000"/>
        <step-length value="0.1"/>
    </time>

    <processing>
        <collision.action value="warn"/>
        <time-to-teleport value="-1"/>
        <ignore-junction-blocker value="60"/>
        <pedestrian.model value="striping"/>
        <lateral-resolution value="0.8"/>
    </processing>

    <report>
        <verbose value="true"/>
        <duration-log.statistics value="true"/>
        <log value="urban.log"/>
        <message-log value="urban.messages.log"/>
        <error-log value="urban.error.log"/>
    </report>

    <gui_only>
        <gui-settings-file value="urban.view.xml"/>
        <start value="true"/>
        <delay value="100"/>
        <tracker-interval value="0.1"/>
    </gui_only>

    <communication>
        <device.btreceiver.probability value="1"/>
        <device.btreceiver.range value="300"/>
        <device.btsender.probability value="1"/>
    </communication>

</configuration>