<?xml version="1.0" encoding="UTF-8"?>

<routes xmlns:xsi="http://www.w3.org/2001/XMLSchema-instance" xsi:noNamespaceSchemaLocation="http://sumo.dlr.de/xsd/routes_file.xsd">
    <!-- Vehicle Types -->
    <vType id="passenger_car" length="5" minGap="2.5" maxSpeed="55.56" accel="2.6" decel="4.5" sigma="0.5" tau="1.0" vClass="passenger">
        <param key="has.btreceiver" value="true"/>
        <param key="has.btsender" value="true"/>
    </vType>
    
    <vType id="emergency_vehicle" length="6" minGap="2.5" maxSpeed="69.44" accel="3.0" decel="5.0" sigma="0.5" tau="1.0" vClass="emergency" guiShape="emergency">
        <param key="has.btreceiver" value="true"/>
        <param key="has.btsender" value="true"/>
    </vType>
    
    <!-- Vehicle flows -->
    <!-- Main arterial road flows -->
    <flow id="flow_main_1" type="passenger_car" begin="0" end="1000" probability="0.3" from="main_in_1" to="main_out_1">
        <param key="communication_range" value="300"/>
    </flow>
    
    <flow id="flow_main_2" type="passenger_car" begin="0" end="1000" probability="0.3" from="main_in_2" to="main_out_2">
        <param key="communication_range" value="300"/>
    </flow>
    
    <!-- Cross street flows -->
    <flow id="flow_cross_1" type="passenger_car" begin="0" end="1000" probability="0.2" from="cross_in_1" to="cross_out_1">
        <param key="communication_range" value="300"/>
    </flow>
    
    <flow id="flow_cross_2" type="passenger_car" begin="0" end="1000" probability="0.2" from="cross_in_2" to="cross_out_2">
        <param key="communication_range" value="300"/>
    </flow>
    
    <!-- Emergency vehicle routes -->
    <route id="emergency_route_1" edges="main_in_1 main_out_1"/>
    <route id="emergency_route_2" edges="cross_in_1 cross_out_1"/>
    
    <!-- Emergency vehicle trips -->
    <vehicle id="emergency_1" type="emergency_vehicle" depart="100" route="emergency_route_1">
        <param key="communication_range" value="500"/>
    </vehicle>
    
    <vehicle id="emergency_2" type="emergency_vehicle" depart="300" route="emergency_route_2">
        <param key="communication_range" value="500"/>
    </vehicle>
    
    <!-- Random trips -->
    <trip id="random_1" type="passenger_car" depart="50" from="main_in_1" to="cross_out_2"/>
    <trip id="random_2" type="passenger_car" depart="150" from="cross_in_1" to="main_out_2"/>
    <trip id="random_3" type="passenger_car" depart="250" from="main_in_2" to="cross_out_1"/>
    
    <!-- Periodic vehicle insertions -->
    <vehicle id="periodic_1" type="passenger_car" depart="0" period="100" repno="10" route="emergency_route_1"/>
    <vehicle id="periodic_2" type="passenger_car" depart="0" period="100" repno="10" route="emergency_route_2"/>
    
    <!-- V2X-equipped vehicles -->
    <vType id="v2x_car" length="5" minGap="2.5" maxSpeed="55.56" accel="2.6" decel="4.5" sigma="0.5" tau="1.0" vClass="passenger">
        <param key="has.btreceiver" value="true"/>
        <param key="has.btsender" value="true"/>
        <param key="v2x.enabled" value="true"/>
        <param key="communication_range" value="300"/>
    </vType>
    
    <flow id="v2x_flow_1" type="v2x_car" begin="0" end="1000" probability="0.2" from="main_in_1" to="main_out_1"/>
    <flow id="v2x_flow_2" type="v2x_car" begin="0" end="1000" probability="0.2" from="cross_in_1" to="cross_out_1"/>
</routes>