<?xml version="1.0" encoding="UTF-8"?>

<net version="1.9" junctionCornerDetail="5" limitTurnSpeed="5.50" xmlns:xsi="http://www.w3.org/2001/XMLSchema-instance" xsi:noNamespaceSchemaLocation="http://sumo.dlr.de/xsd/net_file.xsd">

    <location netOffset="0.00,0.00" convBoundary="0.00,0.00,1000.00,1000.00" origBoundary="-10000000000.00,-10000000000.00,10000000000.00,10000000000.00" projParameter="!"/>

    <!-- Type definitions -->
    <type id="highway.primary" priority="12" numLanes="2" speed="27.78"/>
    <type id="highway.secondary" priority="11" numLanes="2" speed="22.22"/>
    
    <!-- Edge Types -->
    <edge type="highway.primary" id="main_in_1" from="main_start_1" to="junction_1" priority="12" numLanes="2" speed="27.78"/>
    <edge type="highway.primary" id="main_out_1" from="junction_1" to="main_end_1" priority="12" numLanes="2" speed="27.78"/>
    <edge type="highway.primary" id="main_in_2" from="main_start_2" to="junction_2" priority="12" numLanes="2" speed="27.78"/>
    <edge type="highway.primary" id="main_out_2" from="junction_2" to="main_end_2" priority="12" numLanes="2" speed="27.78"/>
    
    <edge type="highway.secondary" id="cross_in_1" from="cross_start_1" to="junction_1" priority="11" numLanes="2" speed="22.22"/>
    <edge type="highway.secondary" id="cross_out_1" from="junction_1" to="cross_end_1" priority="11" numLanes="2" speed="22.22"/>
    <edge type="highway.secondary" id="cross_in_2" from="cross_start_2" to="junction_2" priority="11" numLanes="2" speed="22.22"/>
    <edge type="highway.secondary" id="cross_out_2" from="junction_2" to="cross_end_2" priority="11" numLanes="2" speed="22.22"/>

    <!-- Junction Definitions -->
    <junction id="junction_1" type="priority" x="500.00" y="500.00" incLanes="main_in_1_0 main_in_1_1 cross_in_1_0 cross_in_1_1" intLanes=":junction_1_0_0 :junction_1_1_0 :junction_1_2_0 :junction_1_3_0" shape="498.40,506.40 501.60,506.40 506.40,501.60 506.40,498.40 501.60,493.60 498.40,493.60 493.60,498.40 493.60,501.60">
        <request index="0" response="0000" foes="1010"/>
        <request index="1" response="0101" foes="0101"/>
        <request index="2" response="0000" foes="1010"/>
        <request index="3" response="0101" foes="0101"/>
    </junction>

    <junction id="junction_2" type="priority" x="700.00" y="700.00" incLanes="main_in_2_0 main_in_2_1 cross_in_2_0 cross_in_2_1" intLanes=":junction_2_0_0 :junction_2_1_0 :junction_2_2_0 :junction_2_3_0" shape="698.40,706.40 701.60,706.40 706.40,701.60 706.40,698.40 701.60,693.60 698.40,693.60 693.60,698.40 693.60,701.60">
        <request index="0" response="0000" foes="1010"/>
        <request index="1" response="0101" foes="0101"/>
        <request index="2" response="0000" foes="1010"/>
        <request index="3" response="0101" foes="0101"/>
    </junction>

    <!-- Traffic Light Systems -->
    <tlLogic id="junction_1_tls" type="static" programID="0" offset="0">
        <phase duration="31" state="GGrr"/>
        <phase duration="4"  state="yyrr"/>
        <phase duration="31" state="rrGG"/>
        <phase duration="4"  state="rryy"/>
    </tlLogic>

    <tlLogic id="junction_2_tls" type="static" programID="0" offset="0">
        <phase duration="31" state="GGrr"/>
        <phase duration="4"  state="yyrr"/>
        <phase duration="31" state="rrGG"/>
        <phase duration="4"  state="rryy"/>
    </tlLogic>

    <!-- Connection Definitions -->
    <connection from="main_in_1" to="main_out_1" fromLane="0" toLane="0" via=":junction_1_0_0" tl="junction_1_tls" linkIndex="0"/>
    <connection from="main_in_1" to="cross_out_1" fromLane="1" toLane="1" via=":junction_1_1_0" tl="junction_1_tls" linkIndex="1"/>
    <connection from="cross_in_1" to="cross_out_1" fromLane="0" toLane="0" via=":junction_1_2_0" tl="junction_1_tls" linkIndex="2"/>
    <connection from="cross_in_1" to="main_out_1" fromLane="1" toLane="1" via=":junction_1_3_0" tl="junction_1_tls" linkIndex="3"/>

    <connection from="main_in_2" to="main_out_2" fromLane="0" toLane="0" via=":junction_2_0_0" tl="junction_2_tls" linkIndex="0"/>
    <connection from="main_in_2" to="cross_out_2" fromLane="1" toLane="1" via=":junction_2_1_0" tl="junction_2_tls" linkIndex="1"/>
    <connection from="cross_in_2" to="cross_out_2" fromLane="0" toLane="0" via=":junction_2_2_0" tl="junction_2_tls" linkIndex="2"/>
    <connection from="cross_in_2" to="main_out_2" fromLane="1" toLane="1" via=":junction_2_3_0" tl="junction_2_tls" linkIndex="3"/>

    <!-- Junction Internal Links -->
    <junction id=":junction_1_0_0" type="internal" x="500.00" y="500.00" incLanes=":junction_1_0_0" intLanes=":junction_1_0_0"/>
    <junction id=":junction_1_1_0" type="internal" x="500.00" y="500.00" incLanes=":junction_1_1_0" intLanes=":junction_1_1_0"/>
    <junction id=":junction_1_2_0" type="internal" x="500.00" y="500.00" incLanes=":junction_1_2_0" intLanes=":junction_1_2_0"/>
    <junction id=":junction_1_3_0" type="internal" x="500.00" y="500.00" incLanes=":junction_1_3_0" intLanes=":junction_1_3_0"/>

    <junction id=":junction_2_0_0" type="internal" x="700.00" y="700.00" incLanes=":junction_2_0_0" intLanes=":junction_2_0_0"/>
    <junction id=":junction_2_1_0" type="internal" x="700.00" y="700.00" incLanes=":junction_2_1_0" intLanes=":junction_2_1_0"/>
    <junction id=":junction_2_2_0" type="internal" x="700.00" y="700.00" incLanes=":junction_2_2_0" intLanes=":junction_2_2_0"/>
    <junction id=":junction_2_3_0" type="internal" x="700.00" y="700.00" incLanes=":junction_2_3_0" intLanes=":junction_2_3_0"/>

    <!-- Edge Endpoints -->
    <junction id="main_start_1" type="dead_end" x="0.00" y="500.00" incLanes="" intLanes="" shape="0.00,501.60 0.00,498.40"/>
    <junction id="main_end_1" type="dead_end" x="1000.00" y="500.00" incLanes="main_out_1_0 main_out_1_1" intLanes="" shape="1000.00,498.40 1000.00,501.60"/>
    <junction id="main_start_2" type="dead_end" x="0.00" y="700.00" incLanes="" intLanes="" shape="0.00,701.60 0.00,698.40"/>
    <junction id="main_end_2" type="dead_end" x="1000.00" y="700.00" incLanes="main_out_2_0 main_out_2_1" intLanes="" shape="1000.00,698.40 1000.00,701.60"/>

    <junction id="cross_start_1" type="dead_end" x="500.00" y="0.00" incLanes="" intLanes="" shape="501.60,0.00 498.40,0.00"/>
    <junction id="cross_end_1" type="dead_end" x="500.00" y="1000.00" incLanes="cross_out_1_0 cross_out_1_1" intLanes="" shape="498.40,1000.00 501.60,1000.00"/>
    <junction id="cross_start_2" type="dead_end" x="700.00" y="0.00" incLanes="" intLanes="" shape="701.60,0.00 698.40,0.00"/>
    <junction id="cross_end_2" type="dead_end" x="700.00" y="1000.00" incLanes="cross_out_2_0 cross_out_2_1" intLanes="" shape="698.40,1000.00 701.60,1000.00"/>

</net>